21
 energy: -39.530635029021 gnorm: 0.000085926545 xtb: 6.6.1 (8d0f1dd)
B            0.00004836905839       -1.16297427984143        0.00138520281965
N            1.24625619058332       -0.24078685386993       -0.00141104439043
C            2.51744494152920       -0.61895047880193       -0.00356439451676
C            3.35659901517029        0.50485222305123       -0.00294182198306
C            2.54014699393848        1.61218697346961        0.00009756118165
C            1.20525484728416        1.13835878446284        0.00085325513625
C           -0.00013532360207        1.82103644797762        0.00222034639473
C           -1.20544276671126        1.13821003626099        0.00033456763799
N           -1.24627101694267       -0.24093993124706       -0.00233285492954
C           -2.51741203466291       -0.61926302816474       -0.00542461647900
C           -3.35670550771448        0.50443463775745       -0.00497981663123
C           -2.54039277266754        1.61187092676076       -0.00108937941669
F           -0.00033134802387       -1.94491983831262        1.13421099322548
F            0.00052117240778       -1.95410185203215       -1.12477091197476
H            2.78202203497454       -1.65908578898422       -0.00556878772366
H            4.42829732991310        0.48379415948461       -0.00453318920921
H            2.83050844138590        2.64444327866033        0.00131695892819
H           -0.00020085123401        2.90064292402841        0.00425583663625
H           -2.78185738615337       -1.65943027965922       -0.00797871018741
H           -4.42839958146947        0.48324259436169       -0.00726190251285
H           -2.83088355436351        2.64409046543776        0.00033449259441
